MODEL 1
REMARK VINA RESULT:     -10.6      0.000      0.000
REMARK  7 active torsions:
REMARK  status: ('A' for Active; 'I' for Inactive)
REMARK    1  A    between atoms: O2_2  and  C3_3 
REMARK    2  A    between atoms: C5_5  and  C13_14 
REMARK    3  A    between atoms: C13_14  and  C14_15 
REMARK    4  A    between atoms: C13_14  and  C18_19 
REMARK    5  A    between atoms: C14_15  and  C15_16 
REMARK    6  A    between atoms: C23_24  and  C24_25 
REMARK    7  A    between atoms: C24_25  and  N25_26 
ROOT
HETATM    1  C1  L6I A1615      12.416  65.916  24.140  1.00 20.93     0.000 C 
HETATM    2  O2  L6I A1615      12.785  64.567  23.855  1.00 20.79     0.000 OA
ENDROOT
BRANCH   2   3
HETATM    3  C3  L6I A1615      13.573  63.906  24.762  1.00 19.65     0.000 A 
HETATM    4  C12 L6I A1615      13.066  62.673  25.201  1.00 17.44     0.000 A 
HETATM    5  N10 L6I A1615      11.945  61.939  24.940  1.00 21.61     0.000 N 
HETATM    6  C7  L6I A1615      13.779  61.926  26.111  1.00 18.20     0.000 A 
HETATM    7  C11 L6I A1615      10.829  62.235  24.051  1.00 21.68     0.000 C 
HETATM    8  N9  L6I A1615      11.961  60.786  25.660  1.00 20.63     0.000 NA
HETATM    9  N8  L6I A1615      13.077  60.784  26.368  1.00 18.71     0.000 N 
HETATM   10  H8  L6I A1615      13.368  60.044  27.007  1.00  0.00     0.000 HD
HETATM   11  C6  L6I A1615      15.022  62.395  26.611  1.00 15.48     0.000 A 
HETATM   12  C5  L6I A1615      15.536  63.624  26.180  1.00 15.27     0.000 A 
HETATM   13  C4  L6I A1615      14.793  64.362  25.254  1.00 16.56     0.000 A 
BRANCH  12  14
HETATM   14  C13 L6I A1615      16.873  64.111  26.728  1.00 13.92     0.000 C 
BRANCH  14  15
HETATM   15  C14 L6I A1615      17.435  65.362  26.042  1.00 15.00     0.000 C 
BRANCH  15  16
HETATM   16  C15 L6I A1615      17.813  65.180  24.577  1.00 16.22     0.000 C 
HETATM   17  O17 L6I A1615      18.218  64.061  24.196  1.00 17.16     0.000 OA
HETATM   18  O16 L6I A1615      17.694  66.177  23.829  1.00 17.96     0.000 OA
ENDBRANCH  15  16
ENDBRANCH  14  15
BRANCH  14  19
HETATM   19  C18 L6I A1615      16.828  64.327  28.233  1.00 12.95     0.000 A 
HETATM   20  C39 L6I A1615      15.806  65.061  28.818  1.00 12.12     0.000 A 
HETATM   21  C23 L6I A1615      15.739  65.274  30.191  1.00 12.60     0.000 A 
HETATM   22  C21 L6I A1615      16.736  64.731  31.011  1.00 12.65     0.000 A 
HETATM   23  C20 L6I A1615      17.766  63.993  30.428  1.00 11.91     0.000 A 
HETATM   24  C22 L6I A1615      16.717  64.929  32.506  1.00 12.48     0.000 C 
HETATM   25  C19 L6I A1615      17.810  63.795  29.058  1.00 12.29     0.000 A 
BRANCH  21  26
HETATM   26  C24 L6I A1615      14.597  66.084  30.761  1.00 13.96     0.000 C 
BRANCH  26  27
HETATM   27  N25 L6I A1615      13.661  65.270  31.567  1.00 13.42     0.000 N 
HETATM   28  C26 L6I A1615      13.172  64.015  30.938  1.00 14.36     0.000 C 
HETATM   29  C27 L6I A1615      12.076  64.241  29.898  1.00 16.14     0.000 C 
HETATM   30  C28 L6I A1615      11.749  62.960  29.134  1.00 18.78     0.000 C 
HETATM   31  O29 L6I A1615      10.869  64.702  30.525  1.00 14.72     0.000 OA
HETATM   32  C30 L6I A1615      10.705  66.076  30.679  1.00 14.39     0.000 A 
HETATM   33  C31 L6I A1615       9.760  66.712  29.884  1.00 15.43     0.000 A 
HETATM   34  C35 L6I A1615      11.454  66.806  31.596  1.00 14.52     0.000 A 
HETATM   35  C32 L6I A1615       9.566  68.076  30.007  1.00 14.55     0.000 A 
HETATM   36  C33 L6I A1615      10.307  68.807  30.916  1.00 15.32     0.000 A 
HETATM   37  C34 L6I A1615      11.252  68.180  31.713  1.00 16.92     0.000 A 
HETATM   38  S36 L6I A1615      12.655  66.000  32.609  1.00 14.00     0.000 S 
HETATM   39  O37 L6I A1615      11.993  64.984  33.365  1.00 14.33     0.000 OA
HETATM   40  O38 L6I A1615      13.399  66.998  33.317  1.00 17.38     0.000 OA
ENDBRANCH  26  27
ENDBRANCH  21  26
ENDBRANCH  14  19
ENDBRANCH  12  14
ENDBRANCH   2   3
TORSDOF 7
ENDMDL
MODEL 2
REMARK VINA RESULT:      -9.6     17.303     20.975
REMARK  7 active torsions:
REMARK  status: ('A' for Active; 'I' for Inactive)
REMARK    1  A    between atoms: O2_2  and  C3_3 
REMARK    2  A    between atoms: C5_5  and  C13_14 
REMARK    3  A    between atoms: C13_14  and  C14_15 
REMARK    4  A    between atoms: C13_14  and  C18_19 
REMARK    5  A    between atoms: C14_15  and  C15_16 
REMARK    6  A    between atoms: C23_24  and  C24_25 
REMARK    7  A    between atoms: C24_25  and  N25_26 
ROOT
HETATM    1  C1  L6I A1615      23.738  60.303  35.818  1.00 20.93     0.000 C 
HETATM    2  O2  L6I A1615      24.275  61.203  36.787  1.00 20.79     0.000 OA
ENDROOT
BRANCH   2   3
HETATM    3  C3  L6I A1615      24.225  60.837  38.108  1.00 19.65     0.000 A 
HETATM    4  C12 L6I A1615      23.160  61.389  38.837  1.00 17.44     0.000 A 
HETATM    5  N10 L6I A1615      22.122  62.228  38.549  1.00 21.61     0.000 N 
HETATM    6  C7  L6I A1615      23.017  61.087  40.172  1.00 18.20     0.000 A 
HETATM    7  C11 L6I A1615      21.769  62.867  37.289  1.00 21.68     0.000 C 
HETATM    8  N9  L6I A1615      21.366  62.438  39.660  1.00 20.63     0.000 NA
HETATM    9  N8  L6I A1615      21.914  61.742  40.642  1.00 18.71     0.000 N 
HETATM   10  H8  L6I A1615      21.568  61.701  41.600  1.00  0.00     0.000 HD
HETATM   11  C6  L6I A1615      23.939  60.222  40.817  1.00 15.48     0.000 A 
HETATM   12  C5  L6I A1615      25.005  59.667  40.100  1.00 15.27     0.000 A 
HETATM   13  C4  L6I A1615      25.128  59.989  38.745  1.00 16.56     0.000 A 
BRANCH  12  14
HETATM   14  C13 L6I A1615      25.986  58.741  40.810  1.00 13.92     0.000 C 
BRANCH  14  15
HETATM   15  C14 L6I A1615      27.063  58.126  39.908  1.00 15.00     0.000 C 
BRANCH  15  16
HETATM   16  C15 L6I A1615      28.153  57.352  40.638  1.00 16.22     0.000 C 
HETATM   17  O17 L6I A1615      27.863  56.254  41.162  1.00 17.16     0.000 OA
HETATM   18  O16 L6I A1615      29.294  57.867  40.671  1.00 17.96     0.000 OA
ENDBRANCH  15  16
ENDBRANCH  14  15
BRANCH  14  19
HETATM   19  C18 L6I A1615      26.641  59.413  42.007  1.00 12.95     0.000 A 
HETATM   20  C39 L6I A1615      26.695  58.778  43.241  1.00 12.12     0.000 A 
HETATM   21  C23 L6I A1615      27.288  59.368  44.352  1.00 12.60     0.000 A 
HETATM   22  C21 L6I A1615      27.848  60.645  44.224  1.00 12.65     0.000 A 
HETATM   23  C20 L6I A1615      27.796  61.287  42.987  1.00 11.91     0.000 A 
HETATM   24  C22 L6I A1615      28.504  61.335  45.393  1.00 12.48     0.000 C 
HETATM   25  C19 L6I A1615      27.200  60.678  41.895  1.00 12.29     0.000 A 
BRANCH  21  26
HETATM   26  C24 L6I A1615      27.312  58.619  45.665  1.00 13.96     0.000 C 
BRANCH  26  27
HETATM   27  N25 L6I A1615      28.620  57.990  45.944  1.00 13.42     0.000 N 
HETATM   28  C26 L6I A1615      29.044  56.911  45.013  1.00 14.36     0.000 C 
HETATM   29  C27 L6I A1615      28.348  55.575  45.272  1.00 16.14     0.000 C 
HETATM   30  C28 L6I A1615      28.654  54.557  44.175  1.00 18.78     0.000 C 
HETATM   31  O29 L6I A1615      28.774  55.015  46.525  1.00 14.72     0.000 OA
HETATM   32  C30 L6I A1615      28.056  55.364  47.666  1.00 14.39     0.000 A 
HETATM   33  C31 L6I A1615      27.255  54.392  48.250  1.00 15.43     0.000 A 
HETATM   34  C35 L6I A1615      28.127  56.639  48.217  1.00 14.52     0.000 A 
HETATM   35  C32 L6I A1615      26.525  54.697  49.386  1.00 14.55     0.000 A 
HETATM   36  C33 L6I A1615      26.590  55.962  49.938  1.00 15.32     0.000 A 
HETATM   37  C34 L6I A1615      27.388  56.937  49.360  1.00 16.92     0.000 A 
HETATM   38  S36 L6I A1615      29.145  57.875  47.475  1.00 14.00     0.000 S 
HETATM   39  O37 L6I A1615      30.489  57.388  47.443  1.00 14.33     0.000 OA
HETATM   40  O38 L6I A1615      28.891  59.126  48.124  1.00 17.38     0.000 OA
ENDBRANCH  26  27
ENDBRANCH  21  26
ENDBRANCH  14  19
ENDBRANCH  12  14
ENDBRANCH   2   3
TORSDOF 7
ENDMDL
MODEL 3
REMARK VINA RESULT:      -9.3     17.323     21.346
REMARK  7 active torsions:
REMARK  status: ('A' for Active; 'I' for Inactive)
REMARK    1  A    between atoms: O2_2  and  C3_3 
REMARK    2  A    between atoms: C5_5  and  C13_14 
REMARK    3  A    between atoms: C13_14  and  C14_15 
REMARK    4  A    between atoms: C13_14  and  C18_19 
REMARK    5  A    between atoms: C14_15  and  C15_16 
REMARK    6  A    between atoms: C23_24  and  C24_25 
REMARK    7  A    between atoms: C24_25  and  N25_26 
ROOT
HETATM    1  C1  L6I A1615      20.601  60.958  39.237  1.00 20.93     0.000 C 
HETATM    2  O2  L6I A1615      21.626  60.191  38.605  1.00 20.79     0.000 OA
ENDROOT
BRANCH   2   3
HETATM    3  C3  L6I A1615      22.929  60.453  38.938  1.00 19.65     0.000 A 
HETATM    4  C12 L6I A1615      23.684  61.083  37.935  1.00 17.44     0.000 A 
HETATM    5  N10 L6I A1615      23.434  61.517  36.665  1.00 21.61     0.000 N 
HETATM    6  C7  L6I A1615      25.005  61.393  38.166  1.00 18.20     0.000 A 
HETATM    7  C11 L6I A1615      22.203  61.454  35.889  1.00 21.68     0.000 C 
HETATM    8  N9  L6I A1615      24.554  62.072  36.130  1.00 20.63     0.000 NA
HETATM    9  N8  L6I A1615      25.504  61.993  37.046  1.00 18.71     0.000 N 
HETATM   10  H8  L6I A1615      26.460  62.330  36.934  1.00  0.00     0.000 HD
HETATM   11  C6  L6I A1615      25.610  61.078  39.411  1.00 15.48     0.000 A 
HETATM   12  C5  L6I A1615      24.868  60.450  40.417  1.00 15.27     0.000 A 
HETATM   13  C4  L6I A1615      23.528  60.147  40.158  1.00 16.56     0.000 A 
BRANCH  12  14
HETATM   14  C13 L6I A1615      25.537  60.120  41.747  1.00 13.92     0.000 C 
BRANCH  14  15
HETATM   15  C14 L6I A1615      24.596  59.557  42.820  1.00 15.00     0.000 C 
BRANCH  15  16
HETATM   16  C15 L6I A1615      25.190  59.473  44.221  1.00 16.22     0.000 C 
HETATM   17  O17 L6I A1615      25.669  60.508  44.734  1.00 17.16     0.000 OA
HETATM   18  O16 L6I A1615      25.164  58.356  44.785  1.00 17.96     0.000 OA
ENDBRANCH  15  16
ENDBRANCH  14  15
BRANCH  14  19
HETATM   19  C18 L6I A1615      26.729  59.192  41.572  1.00 12.95     0.000 A 
HETATM   20  C39 L6I A1615      27.844  59.302  42.392  1.00 12.12     0.000 A 
HETATM   21  C23 L6I A1615      28.949  58.468  42.255  1.00 12.60     0.000 A 
HETATM   22  C21 L6I A1615      28.937  57.485  41.258  1.00 12.65     0.000 A 
HETATM   23  C20 L6I A1615      27.819  57.372  40.431  1.00 11.91     0.000 A 
HETATM   24  C22 L6I A1615      30.106  56.553  41.061  1.00 12.48     0.000 C 
HETATM   25  C19 L6I A1615      26.732  58.215  40.587  1.00 12.29     0.000 A 
BRANCH  21  26
HETATM   26  C24 L6I A1615      30.129  58.642  43.183  1.00 13.96     0.000 C 
BRANCH  26  27
HETATM   27  N25 L6I A1615      30.006  57.850  44.426  1.00 13.42     0.000 N 
HETATM   28  C26 L6I A1615      28.985  58.313  45.403  1.00 14.36     0.000 C 
HETATM   29  C27 L6I A1615      29.430  59.525  46.221  1.00 16.14     0.000 C 
HETATM   30  C28 L6I A1615      28.286  60.092  47.059  1.00 18.78     0.000 C 
HETATM   31  O29 L6I A1615      30.497  59.169  47.114  1.00 14.72     0.000 OA
HETATM   32  C30 L6I A1615      31.801  59.282  46.640  1.00 14.39     0.000 A 
HETATM   33  C31 L6I A1615      32.591  60.305  47.150  1.00 15.43     0.000 A 
HETATM   34  C35 L6I A1615      32.315  58.409  45.687  1.00 14.52     0.000 A 
HETATM   35  C32 L6I A1615      33.893  60.452  46.705  1.00 14.55     0.000 A 
HETATM   36  C33 L6I A1615      34.409  59.587  45.758  1.00 15.32     0.000 A 
HETATM   37  C34 L6I A1615      33.627  58.565  45.245  1.00 16.92     0.000 A 
HETATM   38  S36 L6I A1615      31.312  57.108  45.038  1.00 14.00     0.000 S 
HETATM   39  O37 L6I A1615      30.882  56.289  46.128  1.00 14.33     0.000 OA
HETATM   40  O38 L6I A1615      32.014  56.486  43.957  1.00 17.38     0.000 OA
ENDBRANCH  26  27
ENDBRANCH  21  26
ENDBRANCH  14  19
ENDBRANCH  12  14
ENDBRANCH   2   3
TORSDOF 7
ENDMDL
MODEL 4
REMARK VINA RESULT:      -9.1      3.796      7.432
REMARK  7 active torsions:
REMARK  status: ('A' for Active; 'I' for Inactive)
REMARK    1  A    between atoms: O2_2  and  C3_3 
REMARK    2  A    between atoms: C5_5  and  C13_14 
REMARK    3  A    between atoms: C13_14  and  C14_15 
REMARK    4  A    between atoms: C13_14  and  C18_19 
REMARK    5  A    between atoms: C14_15  and  C15_16 
REMARK    6  A    between atoms: C23_24  and  C24_25 
REMARK    7  A    between atoms: C24_25  and  N25_26 
ROOT
HETATM    1  C1  L6I A1615      17.351  61.917  35.891  1.00 20.93     0.000 C 
HETATM    2  O2  L6I A1615      17.905  63.209  35.647  1.00 20.79     0.000 OA
ENDROOT
BRANCH   2   3
HETATM    3  C3  L6I A1615      18.428  63.466  34.406  1.00 19.65     0.000 A 
HETATM    4  C12 L6I A1615      19.824  63.344  34.314  1.00 17.44     0.000 A 
HETATM    5  N10 L6I A1615      20.826  63.020  35.181  1.00 21.61     0.000 N 
HETATM    6  C7  L6I A1615      20.452  63.579  33.112  1.00 18.20     0.000 A 
HETATM    7  C11 L6I A1615      20.754  62.672  36.595  1.00 21.68     0.000 C 
HETATM    8  N9  L6I A1615      22.027  63.053  34.545  1.00 20.63     0.000 NA
HETATM    9  N8  L6I A1615      21.793  63.393  33.289  1.00 18.71     0.000 N 
HETATM   10  H8  L6I A1615      22.504  63.499  32.565  1.00  0.00     0.000 HD
HETATM   11  C6  L6I A1615      19.699  63.946  31.966  1.00 15.48     0.000 A 
HETATM   12  C5  L6I A1615      18.308  64.072  32.047  1.00 15.27     0.000 A 
HETATM   13  C4  L6I A1615      17.694  63.827  33.279  1.00 16.56     0.000 A 
BRANCH  12  14
HETATM   14  C13 L6I A1615      17.516  64.467  30.806  1.00 13.92     0.000 C 
BRANCH  14  15
HETATM   15  C14 L6I A1615      17.390  63.368  29.744  1.00 15.00     0.000 C 
BRANCH  15  16
HETATM   16  C15 L6I A1615      17.828  63.772  28.341  1.00 16.22     0.000 C 
HETATM   17  O17 L6I A1615      17.624  62.979  27.396  1.00 17.16     0.000 OA
HETATM   18  O16 L6I A1615      18.376  64.890  28.214  1.00 17.96     0.000 OA
ENDBRANCH  15  16
ENDBRANCH  14  15
BRANCH  14  19
HETATM   19  C18 L6I A1615      16.137  65.005  31.155  1.00 12.95     0.000 A 
HETATM   20  C39 L6I A1615      15.082  64.899  30.259  1.00 12.12     0.000 A 
HETATM   21  C23 L6I A1615      13.811  65.381  30.552  1.00 12.60     0.000 A 
HETATM   22  C21 L6I A1615      13.587  65.995  31.790  1.00 12.65     0.000 A 
HETATM   23  C20 L6I A1615      14.644  66.105  32.694  1.00 11.91     0.000 A 
HETATM   24  C22 L6I A1615      12.230  66.537  32.163  1.00 12.48     0.000 C 
HETATM   25  C19 L6I A1615      15.901  65.616  32.379  1.00 12.29     0.000 A 
BRANCH  21  26
HETATM   26  C24 L6I A1615      12.707  65.232  29.530  1.00 13.96     0.000 C 
BRANCH  26  27
HETATM   27  N25 L6I A1615      12.951  64.127  28.578  1.00 13.42     0.000 N 
HETATM   28  C26 L6I A1615      13.608  64.496  27.296  1.00 14.36     0.000 C 
HETATM   29  C27 L6I A1615      12.660  65.150  26.291  1.00 16.14     0.000 C 
HETATM   30  C28 L6I A1615      13.410  65.697  25.079  1.00 18.78     0.000 C 
HETATM   31  O29 L6I A1615      11.688  64.203  25.819  1.00 14.72     0.000 OA
HETATM   32  C30 L6I A1615      10.500  64.084  26.535  1.00 14.39     0.000 A 
HETATM   33  C31 L6I A1615       9.339  64.577  25.954  1.00 15.43     0.000 A 
HETATM   34  C35 L6I A1615      10.457  63.493  27.794  1.00 14.52     0.000 A 
HETATM   35  C32 L6I A1615       8.137  64.478  26.632  1.00 14.55     0.000 A 
HETATM   36  C33 L6I A1615       8.088  63.892  27.883  1.00 15.32     0.000 A 
HETATM   37  C34 L6I A1615       9.242  63.398  28.469  1.00 16.92     0.000 A 
HETATM   38  S36 L6I A1615      11.933  62.865  28.534  1.00 14.00     0.000 S 
HETATM   39  O37 L6I A1615      12.489  61.882  27.659  1.00 14.33     0.000 OA
HETATM   40  O38 L6I A1615      11.641  62.486  29.884  1.00 17.38     0.000 OA
ENDBRANCH  26  27
ENDBRANCH  21  26
ENDBRANCH  14  19
ENDBRANCH  12  14
ENDBRANCH   2   3
TORSDOF 7
ENDMDL
MODEL 5
REMARK VINA RESULT:      -9.1     16.987     20.766
REMARK  7 active torsions:
REMARK  status: ('A' for Active; 'I' for Inactive)
REMARK    1  A    between atoms: O2_2  and  C3_3 
REMARK    2  A    between atoms: C5_5  and  C13_14 
REMARK    3  A    between atoms: C13_14  and  C14_15 
REMARK    4  A    between atoms: C13_14  and  C18_19 
REMARK    5  A    between atoms: C14_15  and  C15_16 
REMARK    6  A    between atoms: C23_24  and  C24_25 
REMARK    7  A    between atoms: C24_25  and  N25_26 
ROOT
HETATM    1  C1  L6I A1615      23.908  60.000  35.698  1.00 20.93     0.000 C 
HETATM    2  O2  L6I A1615      23.635  61.034  36.643  1.00 20.79     0.000 OA
ENDROOT
BRANCH   2   3
HETATM    3  C3  L6I A1615      23.847  60.769  37.972  1.00 19.65     0.000 A 
HETATM    4  C12 L6I A1615      22.681  60.588  38.734  1.00 17.44     0.000 A 
HETATM    5  N10 L6I A1615      21.342  60.609  38.473  1.00 21.61     0.000 N 
HETATM    6  C7  L6I A1615      22.780  60.317  40.080  1.00 18.20     0.000 A 
HETATM    7  C11 L6I A1615      20.645  60.848  37.216  1.00 21.68     0.000 C 
HETATM    8  N9  L6I A1615      20.638  60.362  39.611  1.00 20.63     0.000 NA
HETATM    9  N8  L6I A1615      21.517  60.185  40.582  1.00 18.71     0.000 N 
HETATM   10  H8  L6I A1615      21.288  59.981  41.555  1.00  0.00     0.000 HD
HETATM   11  C6  L6I A1615      24.052  60.220  40.703  1.00 15.48     0.000 A 
HETATM   12  C5  L6I A1615      25.220  60.399  39.953  1.00 15.27     0.000 A 
HETATM   13  C4  L6I A1615      25.092  60.673  38.588  1.00 16.56     0.000 A 
BRANCH  12  14
HETATM   14  C13 L6I A1615      26.577  60.292  40.640  1.00 13.92     0.000 C 
BRANCH  14  15
HETATM   15  C14 L6I A1615      26.916  61.452  41.583  1.00 15.00     0.000 C 
BRANCH  15  16
HETATM   16  C15 L6I A1615      28.328  61.427  42.157  1.00 16.22     0.000 C 
HETATM   17  O17 L6I A1615      29.238  60.891  41.488  1.00 17.16     0.000 OA
HETATM   18  O16 L6I A1615      28.497  61.952  43.280  1.00 17.96     0.000 OA
ENDBRANCH  15  16
ENDBRANCH  14  15
BRANCH  14  19
HETATM   19  C18 L6I A1615      26.742  58.969  41.372  1.00 12.95     0.000 A 
HETATM   20  C39 L6I A1615      26.574  58.890  42.748  1.00 12.12     0.000 A 
HETATM   21  C23 L6I A1615      26.718  57.694  43.443  1.00 12.60     0.000 A 
HETATM   22  C21 L6I A1615      27.046  56.532  42.734  1.00 12.65     0.000 A 
HETATM   23  C20 L6I A1615      27.217  56.607  41.351  1.00 11.91     0.000 A 
HETATM   24  C22 L6I A1615      27.216  55.207  43.434  1.00 12.48     0.000 C 
HETATM   25  C19 L6I A1615      27.068  57.810  40.682  1.00 12.29     0.000 A 
BRANCH  21  26
HETATM   26  C24 L6I A1615      26.519  57.679  44.942  1.00 13.96     0.000 C 
BRANCH  26  27
HETATM   27  N25 L6I A1615      27.544  58.460  45.666  1.00 13.42     0.000 N 
HETATM   28  C26 L6I A1615      28.946  58.299  45.198  1.00 14.36     0.000 C 
HETATM   29  C27 L6I A1615      29.603  57.003  45.671  1.00 16.14     0.000 C 
HETATM   30  C28 L6I A1615      30.959  56.779  45.005  1.00 18.78     0.000 C 
HETATM   31  O29 L6I A1615      29.807  57.028  47.093  1.00 14.72     0.000 OA
HETATM   32  C30 L6I A1615      28.780  56.549  47.902  1.00 14.39     0.000 A 
HETATM   33  C31 L6I A1615      28.977  55.338  48.553  1.00 15.43     0.000 A 
HETATM   34  C35 L6I A1615      27.589  57.248  48.067  1.00 14.52     0.000 A 
HETATM   35  C32 L6I A1615      27.981  54.828  49.367  1.00 14.55     0.000 A 
HETATM   36  C33 L6I A1615      26.795  55.517  49.535  1.00 15.32     0.000 A 
HETATM   37  C34 L6I A1615      26.592  56.726  48.889  1.00 16.92     0.000 A 
HETATM   38  S36 L6I A1615      27.339  58.789  47.241  1.00 14.00     0.000 S 
HETATM   39  O37 L6I A1615      28.377  59.686  47.642  1.00 14.33     0.000 OA
HETATM   40  O38 L6I A1615      25.978  59.194  47.434  1.00 17.38     0.000 OA
ENDBRANCH  26  27
ENDBRANCH  21  26
ENDBRANCH  14  19
ENDBRANCH  12  14
ENDBRANCH   2   3
TORSDOF 7
ENDMDL
MODEL 6
REMARK VINA RESULT:      -9.1     17.185     21.105
REMARK  7 active torsions:
REMARK  status: ('A' for Active; 'I' for Inactive)
REMARK    1  A    between atoms: O2_2  and  C3_3 
REMARK    2  A    between atoms: C5_5  and  C13_14 
REMARK    3  A    between atoms: C13_14  and  C14_15 
REMARK    4  A    between atoms: C13_14  and  C18_19 
REMARK    5  A    between atoms: C14_15  and  C15_16 
REMARK    6  A    between atoms: C23_24  and  C24_25 
REMARK    7  A    between atoms: C24_25  and  N25_26 
ROOT
HETATM    1  C1  L6I A1615      24.762  62.029  36.345  1.00 20.93     0.000 C 
HETATM    2  O2  L6I A1615      24.182  60.837  36.872  1.00 20.79     0.000 OA
ENDROOT
BRANCH   2   3
HETATM    3  C3  L6I A1615      24.208  60.649  38.230  1.00 19.65     0.000 A 
HETATM    4  C12 L6I A1615      22.949  60.512  38.835  1.00 17.44     0.000 A 
HETATM    5  N10 L6I A1615      21.657  60.518  38.394  1.00 21.61     0.000 N 
HETATM    6  C7  L6I A1615      22.862  60.317  40.195  1.00 18.20     0.000 A 
HETATM    7  C11 L6I A1615      21.140  60.685  37.042  1.00 21.68     0.000 C 
HETATM    8  N9  L6I A1615      20.804  60.336  39.437  1.00 20.63     0.000 NA
HETATM    9  N8  L6I A1615      21.542  60.215  40.528  1.00 18.71     0.000 N 
HETATM   10  H8  L6I A1615      21.180  60.067  41.470  1.00  0.00     0.000 HD
HETATM   11  C6  L6I A1615      24.037  60.256  40.990  1.00 15.48     0.000 A 
HETATM   12  C5  L6I A1615      25.297  60.392  40.397  1.00 15.27     0.000 A 
HETATM   13  C4  L6I A1615      25.358  60.588  39.014  1.00 16.56     0.000 A 
BRANCH  12  14
HETATM   14  C13 L6I A1615      26.547  60.323  41.267  1.00 13.92     0.000 C 
BRANCH  14  15
HETATM   15  C14 L6I A1615      26.424  61.018  42.629  1.00 15.00     0.000 C 
BRANCH  15  16
HETATM   16  C15 L6I A1615      27.748  61.385  43.288  1.00 16.22     0.000 C 
HETATM   17  O17 L6I A1615      28.644  61.906  42.589  1.00 17.16     0.000 OA
HETATM   18  O16 L6I A1615      27.864  61.141  44.511  1.00 17.96     0.000 OA
ENDBRANCH  15  16
ENDBRANCH  14  15
BRANCH  14  19
HETATM   19  C18 L6I A1615      27.030  58.894  41.460  1.00 12.95     0.000 A 
HETATM   20  C39 L6I A1615      26.782  58.212  42.644  1.00 12.12     0.000 A 
HETATM   21  C23 L6I A1615      27.211  56.905  42.849  1.00 12.60     0.000 A 
HETATM   22  C21 L6I A1615      27.917  56.255  41.829  1.00 12.65     0.000 A 
HETATM   23  C20 L6I A1615      28.169  56.936  40.638  1.00 11.91     0.000 A 
HETATM   24  C22 L6I A1615      28.407  54.838  41.993  1.00 12.48     0.000 C 
HETATM   25  C19 L6I A1615      27.731  58.238  40.458  1.00 12.29     0.000 A 
BRANCH  21  26
HETATM   26  C24 L6I A1615      26.906  56.221  44.162  1.00 13.96     0.000 C 
BRANCH  26  27
HETATM   27  N25 L6I A1615      27.821  56.630  45.249  1.00 13.42     0.000 N 
HETATM   28  C26 L6I A1615      28.699  57.796  44.967  1.00 14.36     0.000 C 
HETATM   29  C27 L6I A1615      29.901  57.456  44.086  1.00 16.14     0.000 C 
HETATM   30  C28 L6I A1615      30.657  58.710  43.653  1.00 18.78     0.000 C 
HETATM   31  O29 L6I A1615      30.821  56.606  44.790  1.00 14.72     0.000 OA
HETATM   32  C30 L6I A1615      30.634  55.230  44.692  1.00 14.39     0.000 A 
HETATM   33  C31 L6I A1615      31.549  54.502  43.944  1.00 15.43     0.000 A 
HETATM   34  C35 L6I A1615      29.570  54.587  45.317  1.00 14.52     0.000 A 
HETATM   35  C32 L6I A1615      31.399  53.132  43.821  1.00 14.55     0.000 A 
HETATM   36  C33 L6I A1615      30.344  52.487  44.440  1.00 15.32     0.000 A 
HETATM   37  C34 L6I A1615      29.427  53.207  45.188  1.00 16.92     0.000 A 
HETATM   38  S36 L6I A1615      28.406  55.512  46.269  1.00 14.00     0.000 S 
HETATM   39  O37 L6I A1615      29.116  56.192  47.307  1.00 14.33     0.000 OA
HETATM   40  O38 L6I A1615      27.327  54.645  46.640  1.00 17.38     0.000 OA
ENDBRANCH  26  27
ENDBRANCH  21  26
ENDBRANCH  14  19
ENDBRANCH  12  14
ENDBRANCH   2   3
TORSDOF 7
ENDMDL
MODEL 7
REMARK VINA RESULT:      -9.0     17.835     21.524
REMARK  7 active torsions:
REMARK  status: ('A' for Active; 'I' for Inactive)
REMARK    1  A    between atoms: O2_2  and  C3_3 
REMARK    2  A    between atoms: C5_5  and  C13_14 
REMARK    3  A    between atoms: C13_14  and  C14_15 
REMARK    4  A    between atoms: C13_14  and  C18_19 
REMARK    5  A    between atoms: C14_15  and  C15_16 
REMARK    6  A    between atoms: C23_24  and  C24_25 
REMARK    7  A    between atoms: C24_25  and  N25_26 
ROOT
HETATM    1  C1  L6I A1615      21.029  59.985  39.693  1.00 20.93     0.000 C 
HETATM    2  O2  L6I A1615      22.032  60.849  40.226  1.00 20.79     0.000 OA
ENDROOT
BRANCH   2   3
HETATM    3  C3  L6I A1615      23.346  60.530  40.006  1.00 19.65     0.000 A 
HETATM    4  C12 L6I A1615      23.929  61.151  38.890  1.00 17.44     0.000 A 
HETATM    5  N10 L6I A1615      23.499  62.026  37.935  1.00 21.61     0.000 N 
HETATM    6  C7  L6I A1615      25.246  60.900  38.578  1.00 18.20     0.000 A 
HETATM    7  C11 L6I A1615      22.188  62.639  37.761  1.00 21.68     0.000 C 
HETATM    8  N9  L6I A1615      24.506  62.306  37.066  1.00 20.63     0.000 NA
HETATM    9  N8  L6I A1615      25.565  61.620  37.462  1.00 18.71     0.000 N 
HETATM   10  H8  L6I A1615      26.477  61.628  37.006  1.00  0.00     0.000 HD
HETATM   11  C6  L6I A1615      26.019  60.018  39.376  1.00 15.48     0.000 A 
HETATM   12  C5  L6I A1615      25.448  59.393  40.491  1.00 15.27     0.000 A 
HETATM   13  C4  L6I A1615      24.109  59.664  40.786  1.00 16.56     0.000 A 
BRANCH  12  14
HETATM   14  C13 L6I A1615      26.294  58.447  41.336  1.00 13.92     0.000 C 
BRANCH  14  15
HETATM   15  C14 L6I A1615      27.761  58.332  40.904  1.00 15.00     0.000 C 
BRANCH  15  16
HETATM   16  C15 L6I A1615      28.316  56.913  40.872  1.00 16.22     0.000 C 
HETATM   17  O17 L6I A1615      27.659  55.999  41.415  1.00 17.16     0.000 OA
HETATM   18  O16 L6I A1615      29.413  56.743  40.294  1.00 17.96     0.000 OA
ENDBRANCH  15  16
ENDBRANCH  14  15
BRANCH  14  19
HETATM   19  C18 L6I A1615      26.220  58.785  42.817  1.00 12.95     0.000 A 
HETATM   20  C39 L6I A1615      26.328  57.792  43.782  1.00 12.12     0.000 A 
HETATM   21  C23 L6I A1615      26.264  58.072  45.143  1.00 12.60     0.000 A 
HETATM   22  C21 L6I A1615      26.085  59.398  45.555  1.00 12.65     0.000 A 
HETATM   23  C20 L6I A1615      25.975  60.399  44.590  1.00 11.91     0.000 A 
HETATM   24  C22 L6I A1615      26.008  59.762  47.016  1.00 12.48     0.000 C 
HETATM   25  C19 L6I A1615      26.042  60.095  43.240  1.00 12.29     0.000 A 
BRANCH  21  26
HETATM   26  C24 L6I A1615      26.390  56.942  46.139  1.00 13.96     0.000 C 
BRANCH  26  27
HETATM   27  N25 L6I A1615      27.788  56.691  46.551  1.00 13.42     0.000 N 
HETATM   28  C26 L6I A1615      28.651  55.995  45.561  1.00 14.36     0.000 C 
HETATM   29  C27 L6I A1615      28.404  54.488  45.490  1.00 16.14     0.000 C 
HETATM   30  C28 L6I A1615      29.157  53.846  44.327  1.00 18.78     0.000 C 
HETATM   31  O29 L6I A1615      28.832  53.846  46.702  1.00 14.72     0.000 OA
HETATM   32  C30 L6I A1615      27.906  53.730  47.734  1.00 14.39     0.000 A 
HETATM   33  C31 L6I A1615      27.401  52.468  48.015  1.00 15.43     0.000 A 
HETATM   34  C35 L6I A1615      27.488  54.833  48.473  1.00 14.52     0.000 A 
HETATM   35  C32 L6I A1615      26.478  52.310  49.034  1.00 14.55     0.000 A 
HETATM   36  C33 L6I A1615      26.058  53.401  49.772  1.00 15.32     0.000 A 
HETATM   37  C34 L6I A1615      26.558  54.664  49.497  1.00 16.92     0.000 A 
HETATM   38  S36 L6I A1615      28.130  56.439  48.117  1.00 14.00     0.000 S 
HETATM   39  O37 L6I A1615      29.552  56.393  48.254  1.00 14.33     0.000 OA
HETATM   40  O38 L6I A1615      27.404  57.402  48.889  1.00 17.38     0.000 OA
ENDBRANCH  26  27
ENDBRANCH  21  26
ENDBRANCH  14  19
ENDBRANCH  12  14
ENDBRANCH   2   3
TORSDOF 7
ENDMDL
MODEL 8
REMARK VINA RESULT:      -9.0      3.678      7.627
REMARK  7 active torsions:
REMARK  status: ('A' for Active; 'I' for Inactive)
REMARK    1  A    between atoms: O2_2  and  C3_3 
REMARK    2  A    between atoms: C5_5  and  C13_14 
REMARK    3  A    between atoms: C13_14  and  C14_15 
REMARK    4  A    between atoms: C13_14  and  C18_19 
REMARK    5  A    between atoms: C14_15  and  C15_16 
REMARK    6  A    between atoms: C23_24  and  C24_25 
REMARK    7  A    between atoms: C24_25  and  N25_26 
ROOT
HETATM    1  C1  L6I A1615      17.631  61.928  36.002  1.00 20.93     0.000 C 
HETATM    2  O2  L6I A1615      17.934  63.283  35.672  1.00 20.79     0.000 OA
ENDROOT
BRANCH   2   3
HETATM    3  C3  L6I A1615      18.409  63.553  34.415  1.00 19.65     0.000 A 
HETATM    4  C12 L6I A1615      19.803  63.462  34.274  1.00 17.44     0.000 A 
HETATM    5  N10 L6I A1615      20.842  63.159  35.106  1.00 21.61     0.000 N 
HETATM    6  C7  L6I A1615      20.384  63.713  33.052  1.00 18.20     0.000 A 
HETATM    7  C11 L6I A1615      20.825  62.808  36.520  1.00 21.68     0.000 C 
HETATM    8  N9  L6I A1615      22.019  63.220  34.429  1.00 20.63     0.000 NA
HETATM    9  N8  L6I A1615      21.735  63.557  33.182  1.00 18.71     0.000 N 
HETATM   10  H8  L6I A1615      22.417  63.680  32.435  1.00  0.00     0.000 HD
HETATM   11  C6  L6I A1615      19.585  64.064  31.933  1.00 15.48     0.000 A 
HETATM   12  C5  L6I A1615      18.194  64.159  32.063  1.00 15.27     0.000 A 
HETATM   13  C4  L6I A1615      17.628  63.898  33.314  1.00 16.56     0.000 A 
BRANCH  12  14
HETATM   14  C13 L6I A1615      17.352  64.538  30.849  1.00 13.92     0.000 C 
BRANCH  14  15
HETATM   15  C14 L6I A1615      17.245  63.451  29.773  1.00 15.00     0.000 C 
BRANCH  15  16
HETATM   16  C15 L6I A1615      17.730  63.863  28.388  1.00 16.22     0.000 C 
HETATM   17  O17 L6I A1615      18.295  64.970  28.254  1.00 17.16     0.000 OA
HETATM   18  O16 L6I A1615      17.532  63.057  27.451  1.00 17.96     0.000 OA
ENDBRANCH  15  16
ENDBRANCH  14  15
BRANCH  14  19
HETATM   19  C18 L6I A1615      15.961  65.009  31.245  1.00 12.95     0.000 A 
HETATM   20  C39 L6I A1615      14.830  64.476  30.642  1.00 12.12     0.000 A 
HETATM   21  C23 L6I A1615      13.545  64.886  30.984  1.00 12.60     0.000 A 
HETATM   22  C21 L6I A1615      13.387  65.870  31.968  1.00 12.65     0.000 A 
HETATM   23  C20 L6I A1615      14.521  66.409  32.577  1.00 11.91     0.000 A 
HETATM   24  C22 L6I A1615      12.020  66.355  32.380  1.00 12.48     0.000 C 
HETATM   25  C19 L6I A1615      15.790  65.983  32.218  1.00 12.29     0.000 A 
BRANCH  21  26
HETATM   26  C24 L6I A1615      12.357  64.263  30.288  1.00 13.96     0.000 C 
BRANCH  26  27
HETATM   27  N25 L6I A1615      11.821  65.107  29.198  1.00 13.42     0.000 N 
HETATM   28  C26 L6I A1615      10.348  65.072  29.003  1.00 14.36     0.000 C 
HETATM   29  C27 L6I A1615       9.859  63.821  28.273  1.00 16.14     0.000 C 
HETATM   30  C28 L6I A1615       8.335  63.724  28.275  1.00 18.78     0.000 C 
HETATM   31  O29 L6I A1615      10.300  63.828  26.905  1.00 14.72     0.000 OA
HETATM   32  C30 L6I A1615      11.534  63.249  26.621  1.00 14.39     0.000 A 
HETATM   33  C31 L6I A1615      11.542  62.042  25.933  1.00 15.43     0.000 A 
HETATM   34  C35 L6I A1615      12.731  63.846  27.003  1.00 14.52     0.000 A 
HETATM   35  C32 L6I A1615      12.747  61.434  25.630  1.00 14.55     0.000 A 
HETATM   36  C33 L6I A1615      13.940  62.021  26.009  1.00 15.32     0.000 A 
HETATM   37  C34 L6I A1615      13.939  63.225  26.695  1.00 16.92     0.000 A 
HETATM   38  S36 L6I A1615      12.722  65.380  27.877  1.00 14.00     0.000 S 
HETATM   39  O37 L6I A1615      12.042  66.348  27.074  1.00 14.33     0.000 OA
HETATM   40  O38 L6I A1615      14.058  65.670  28.305  1.00 17.38     0.000 OA
ENDBRANCH  26  27
ENDBRANCH  21  26
ENDBRANCH  14  19
ENDBRANCH  12  14
ENDBRANCH   2   3
TORSDOF 7
ENDMDL
