@<TRIPOS>MOLECULE
output.pdbqt
 40 44 0 0 0
SMALL
GASTEIGER

@<TRIPOS>ATOM
      1  C1        17.6310   61.9280   36.0020 C.3   1615  L6I1615     0.0000
      2  O2        17.9340   63.2830   35.6720 O.2   1615  L6I1615     0.0000
      3  C3        18.4090   63.5530   34.4150 C.2   1615  L6I1615     0.0000
      4  C12       19.8030   63.4620   34.2740 C.2   1615  L6I1615     0.0000
      5  N10       20.8420   63.1590   35.1060 N.pl3 1615  L6I1615     0.0000
      6  C7        20.3840   63.7130   33.0520 C.2   1615  L6I1615     0.0000
      7  C11       20.8250   62.8080   36.5200 C.3   1615  L6I1615     0.0000
      8  N9        22.0190   63.2200   34.4290 N.3   1615  L6I1615     0.0000
      9  N8        21.7350   63.5570   33.1820 N.pl3 1615  L6I1615     0.0000
     10  H8        22.4170   63.6800   32.4350 H     1615  L6I1615     0.0000
     11  C6        19.5850   64.0640   31.9330 C.2   1615  L6I1615     0.0000
     12  C5        18.1940   64.1590   32.0630 C.2   1615  L6I1615     0.0000
     13  C4        17.6280   63.8980   33.3140 C.2   1615  L6I1615     0.0000
     14  C13       17.3520   64.5380   30.8490 C.3   1615  L6I1615     0.0000
     15  C14       17.2450   63.4510   29.7730 C.3   1615  L6I1615     0.0000
     16  C15       17.7300   63.8630   28.3880 C.2   1615  L6I1615     0.0000
     17  O17       18.2950   64.9700   28.2540 O.co2 1615  L6I1615     0.0000
     18  O16       17.5320   63.0570   27.4510 O.co2 1615  L6I1615     0.0000
     19  C18       15.9610   65.0090   31.2450 C.2   1615  L6I1615     0.0000
     20  C39       14.8300   64.4760   30.6420 C.2   1615  L6I1615     0.0000
     21  C23       13.5450   64.8860   30.9840 C.2   1615  L6I1615     0.0000
     22  C21       13.3870   65.8700   31.9680 C.2   1615  L6I1615     0.0000
     23  C20       14.5210   66.4090   32.5770 C.2   1615  L6I1615     0.0000
     24  C22       12.0200   66.3550   32.3800 C.3   1615  L6I1615     0.0000
     25  C19       15.7900   65.9830   32.2180 C.2   1615  L6I1615     0.0000
     26  C24       12.3570   64.2630   30.2880 C.3   1615  L6I1615     0.0000
     27  N25       11.8210   65.1070   29.1980 N.3   1615  L6I1615     0.0000
     28  C26       10.3480   65.0720   29.0030 C.3   1615  L6I1615     0.0000
     29  C27        9.8590   63.8210   28.2730 C.3   1615  L6I1615     0.0000
     30  C28        8.3350   63.7240   28.2750 C.3   1615  L6I1615     0.0000
     31  O29       10.3000   63.8280   26.9050 O.2   1615  L6I1615     0.0000
     32  C30       11.5340   63.2490   26.6210 C.2   1615  L6I1615     0.0000
     33  C31       11.5420   62.0420   25.9330 C.2   1615  L6I1615     0.0000
     34  C35       12.7310   63.8460   27.0030 C.2   1615  L6I1615     0.0000
     35  C32       12.7470   61.4340   25.6300 C.2   1615  L6I1615     0.0000
     36  C33       13.9400   62.0210   26.0090 C.2   1615  L6I1615     0.0000
     37  C34       13.9390   63.2250   26.6950 C.2   1615  L6I1615     0.0000
     38  S36       12.7220   65.3800   27.8770 S.O2  1615  L6I1615     0.0000
     39  O37       12.0420   66.3480   27.0740 O.2   1615  L6I1615     0.0000
     40  O38       14.0580   65.6700   28.3050 O.2   1615  L6I1615     0.0000
@<TRIPOS>BOND
     1    35    33    1
     2    35    36    2
     3    33    32    2
     4    36    37    1
     5    32    31    1
     6    32    34    1
     7    37    34    2
     8    31    29    1
     9    34    38    1
    10    39    38    2
    11    18    16   ar
    12    38    40    2
    13    38    27    1
    14    17    16   ar
    15    29    30    1
    16    29    28    1
    17    16    15    1
    18    28    27    1
    19    27    26    1
    20    15    14    1
    21    26    21    1
    22    20    21    1
    23    20    19    2
    24    14    19    1
    25    14    12    1
    26    21    22    2
    27    19    25    1
    28    11    12    2
    29    11     6    1
    30    22    24    1
    31    22    23    1
    32    12    13    1
    33    25    23    2
    34    10     9    1
    35     6     9    1
    36     6     4    2
    37     9     8    1
    38    13     3    2
    39     4     3    1
    40     4     5    1
    41     3     2    1
    42     8     5    1
    43     5     7    1
    44     2     1    1
