@<TRIPOS>MOLECULE
output.pdbqt
 40 44 0 0 0
SMALL
GASTEIGER

@<TRIPOS>ATOM
      1  C1        12.4160   65.9160   24.1400 C.3   1615  L6I1615     0.0000
      2  O2        12.7850   64.5670   23.8550 O.2   1615  L6I1615     0.0000
      3  C3        13.5730   63.9060   24.7620 C.2   1615  L6I1615     0.0000
      4  C12       13.0660   62.6730   25.2010 C.2   1615  L6I1615     0.0000
      5  N10       11.9450   61.9390   24.9400 N.pl3 1615  L6I1615     0.0000
      6  C7        13.7790   61.9260   26.1110 C.2   1615  L6I1615     0.0000
      7  C11       10.8290   62.2350   24.0510 C.3   1615  L6I1615     0.0000
      8  N9        11.9610   60.7860   25.6600 N.3   1615  L6I1615     0.0000
      9  N8        13.0770   60.7840   26.3680 N.pl3 1615  L6I1615     0.0000
     10  H8        13.3680   60.0440   27.0070 H     1615  L6I1615     0.0000
     11  C6        15.0220   62.3950   26.6110 C.2   1615  L6I1615     0.0000
     12  C5        15.5360   63.6240   26.1800 C.2   1615  L6I1615     0.0000
     13  C4        14.7930   64.3620   25.2540 C.2   1615  L6I1615     0.0000
     14  C13       16.8730   64.1110   26.7280 C.3   1615  L6I1615     0.0000
     15  C14       17.4350   65.3620   26.0420 C.3   1615  L6I1615     0.0000
     16  C15       17.8130   65.1800   24.5770 C.2   1615  L6I1615     0.0000
     17  O17       18.2180   64.0610   24.1960 O.co2 1615  L6I1615     0.0000
     18  O16       17.6940   66.1770   23.8290 O.co2 1615  L6I1615     0.0000
     19  C18       16.8280   64.3270   28.2330 C.2   1615  L6I1615     0.0000
     20  C39       15.8060   65.0610   28.8180 C.2   1615  L6I1615     0.0000
     21  C23       15.7390   65.2740   30.1910 C.2   1615  L6I1615     0.0000
     22  C21       16.7360   64.7310   31.0110 C.2   1615  L6I1615     0.0000
     23  C20       17.7660   63.9930   30.4280 C.2   1615  L6I1615     0.0000
     24  C22       16.7170   64.9290   32.5060 C.3   1615  L6I1615     0.0000
     25  C19       17.8100   63.7950   29.0580 C.2   1615  L6I1615     0.0000
     26  C24       14.5970   66.0840   30.7610 C.3   1615  L6I1615     0.0000
     27  N25       13.6610   65.2700   31.5670 N.3   1615  L6I1615     0.0000
     28  C26       13.1720   64.0150   30.9380 C.3   1615  L6I1615     0.0000
     29  C27       12.0760   64.2410   29.8980 C.3   1615  L6I1615     0.0000
     30  C28       11.7490   62.9600   29.1340 C.3   1615  L6I1615     0.0000
     31  O29       10.8690   64.7020   30.5250 O.2   1615  L6I1615     0.0000
     32  C30       10.7050   66.0760   30.6790 C.2   1615  L6I1615     0.0000
     33  C31        9.7600   66.7120   29.8840 C.2   1615  L6I1615     0.0000
     34  C35       11.4540   66.8060   31.5960 C.2   1615  L6I1615     0.0000
     35  C32        9.5660   68.0760   30.0070 C.2   1615  L6I1615     0.0000
     36  C33       10.3070   68.8070   30.9160 C.2   1615  L6I1615     0.0000
     37  C34       11.2520   68.1800   31.7130 C.2   1615  L6I1615     0.0000
     38  S36       12.6550   66.0000   32.6090 S.O2  1615  L6I1615     0.0000
     39  O37       11.9930   64.9840   33.3650 O.2   1615  L6I1615     0.0000
     40  O38       13.3990   66.9980   33.3170 O.2   1615  L6I1615     0.0000
@<TRIPOS>BOND
     1    18    16   ar
     2     2     1    1
     3     2     3    1
     4     7     5    1
     5    17    16   ar
     6    16    15    1
     7     3     4    2
     8     3    13    1
     9     5     4    1
    10     5     8    1
    11     4     6    1
    12    13    12    2
    13     8     9    1
    14    15    14    1
    15     6     9    1
    16     6    11    2
    17    12    11    1
    18    12    14    1
    19     9    10    1
    20    14    19    1
    21    19    20    2
    22    19    25    1
    23    20    21    1
    24    25    23    2
    25    30    29    1
    26    33    35    1
    27    33    32    2
    28    29    31    1
    29    29    28    1
    30    35    36    2
    31    21    26    1
    32    21    22    2
    33    23    22    1
    34    31    32    1
    35    32    34    1
    36    26    27    1
    37    36    37    1
    38    28    27    1
    39    22    24    1
    40    27    38    1
    41    34    37    2
    42    34    38    1
    43    38    40    2
    44    38    39    2
