@<TRIPOS>MOLECULE
output.pdbqt
 40 44 0 0 0
SMALL
GASTEIGER

@<TRIPOS>ATOM
      1  C1        23.9080   60.0000   35.6980 C.3   1615  L6I1615     0.0000
      2  O2        23.6350   61.0340   36.6430 O.2   1615  L6I1615     0.0000
      3  C3        23.8470   60.7690   37.9720 C.2   1615  L6I1615     0.0000
      4  C12       22.6810   60.5880   38.7340 C.2   1615  L6I1615     0.0000
      5  N10       21.3420   60.6090   38.4730 N.pl3 1615  L6I1615     0.0000
      6  C7        22.7800   60.3170   40.0800 C.2   1615  L6I1615     0.0000
      7  C11       20.6450   60.8480   37.2160 C.3   1615  L6I1615     0.0000
      8  N9        20.6380   60.3620   39.6110 N.3   1615  L6I1615     0.0000
      9  N8        21.5170   60.1850   40.5820 N.pl3 1615  L6I1615     0.0000
     10  H8        21.2880   59.9810   41.5550 H     1615  L6I1615     0.0000
     11  C6        24.0520   60.2200   40.7030 C.2   1615  L6I1615     0.0000
     12  C5        25.2200   60.3990   39.9530 C.2   1615  L6I1615     0.0000
     13  C4        25.0920   60.6730   38.5880 C.2   1615  L6I1615     0.0000
     14  C13       26.5770   60.2920   40.6400 C.3   1615  L6I1615     0.0000
     15  C14       26.9160   61.4520   41.5830 C.3   1615  L6I1615     0.0000
     16  C15       28.3280   61.4270   42.1570 C.2   1615  L6I1615     0.0000
     17  O17       29.2380   60.8910   41.4880 O.co2 1615  L6I1615     0.0000
     18  O16       28.4970   61.9520   43.2800 O.co2 1615  L6I1615     0.0000
     19  C18       26.7420   58.9690   41.3720 C.2   1615  L6I1615     0.0000
     20  C39       26.5740   58.8900   42.7480 C.2   1615  L6I1615     0.0000
     21  C23       26.7180   57.6940   43.4430 C.2   1615  L6I1615     0.0000
     22  C21       27.0460   56.5320   42.7340 C.2   1615  L6I1615     0.0000
     23  C20       27.2170   56.6070   41.3510 C.2   1615  L6I1615     0.0000
     24  C22       27.2160   55.2070   43.4340 C.3   1615  L6I1615     0.0000
     25  C19       27.0680   57.8100   40.6820 C.2   1615  L6I1615     0.0000
     26  C24       26.5190   57.6790   44.9420 C.3   1615  L6I1615     0.0000
     27  N25       27.5440   58.4600   45.6660 N.3   1615  L6I1615     0.0000
     28  C26       28.9460   58.2990   45.1980 C.3   1615  L6I1615     0.0000
     29  C27       29.6030   57.0030   45.6710 C.3   1615  L6I1615     0.0000
     30  C28       30.9590   56.7790   45.0050 C.3   1615  L6I1615     0.0000
     31  O29       29.8070   57.0280   47.0930 O.2   1615  L6I1615     0.0000
     32  C30       28.7800   56.5490   47.9020 C.2   1615  L6I1615     0.0000
     33  C31       28.9770   55.3380   48.5530 C.2   1615  L6I1615     0.0000
     34  C35       27.5890   57.2480   48.0670 C.2   1615  L6I1615     0.0000
     35  C32       27.9810   54.8280   49.3670 C.2   1615  L6I1615     0.0000
     36  C33       26.7950   55.5170   49.5350 C.2   1615  L6I1615     0.0000
     37  C34       26.5920   56.7260   48.8890 C.2   1615  L6I1615     0.0000
     38  S36       27.3390   58.7890   47.2410 S.O2  1615  L6I1615     0.0000
     39  O37       28.3770   59.6860   47.6420 O.2   1615  L6I1615     0.0000
     40  O38       25.9780   59.1940   47.4340 O.2   1615  L6I1615     0.0000
@<TRIPOS>BOND
     1     1     2    1
     2     2     3    1
     3     7     5    1
     4     3    13    2
     5     3     4    1
     6     5     4    1
     7     5     8    1
     8    13    12    1
     9     4     6    2
    10     8     9    1
    11    12    14    1
    12    12    11    2
    13     6     9    1
    14     6    11    1
    15     9    10    1
    16    14    19    1
    17    14    15    1
    18    25    23    1
    19    25    19    2
    20    23    22    2
    21    19    20    1
    22    17    16   ar
    23    15    16    1
    24    16    18   ar
    25    22    24    1
    26    22    21    1
    27    20    21    2
    28    21    26    1
    29    26    27    1
    30    30    29    1
    31    28    27    1
    32    28    29    1
    33    27    38    1
    34    29    31    1
    35    31    32    1
    36    38    40    2
    37    38    39    2
    38    38    34    1
    39    32    34    2
    40    32    33    1
    41    34    37    1
    42    33    35    2
    43    37    36    2
    44    35    36    1
