@<TRIPOS>MOLECULE
output.pdbqt
 40 44 0 0 0
SMALL
GASTEIGER

@<TRIPOS>ATOM
      1  C1        20.6010   60.9580   39.2370 C.3   1615  L6I1615     0.0000
      2  O2        21.6260   60.1910   38.6050 O.2   1615  L6I1615     0.0000
      3  C3        22.9290   60.4530   38.9380 C.2   1615  L6I1615     0.0000
      4  C12       23.6840   61.0830   37.9350 C.2   1615  L6I1615     0.0000
      5  N10       23.4340   61.5170   36.6650 N.pl3 1615  L6I1615     0.0000
      6  C7        25.0050   61.3930   38.1660 C.2   1615  L6I1615     0.0000
      7  C11       22.2030   61.4540   35.8890 C.3   1615  L6I1615     0.0000
      8  N9        24.5540   62.0720   36.1300 N.3   1615  L6I1615     0.0000
      9  N8        25.5040   61.9930   37.0460 N.pl3 1615  L6I1615     0.0000
     10  H8        26.4600   62.3300   36.9340 H     1615  L6I1615     0.0000
     11  C6        25.6100   61.0780   39.4110 C.2   1615  L6I1615     0.0000
     12  C5        24.8680   60.4500   40.4170 C.2   1615  L6I1615     0.0000
     13  C4        23.5280   60.1470   40.1580 C.2   1615  L6I1615     0.0000
     14  C13       25.5370   60.1200   41.7470 C.3   1615  L6I1615     0.0000
     15  C14       24.5960   59.5570   42.8200 C.3   1615  L6I1615     0.0000
     16  C15       25.1900   59.4730   44.2210 C.2   1615  L6I1615     0.0000
     17  O17       25.6690   60.5080   44.7340 O.co2 1615  L6I1615     0.0000
     18  O16       25.1640   58.3560   44.7850 O.co2 1615  L6I1615     0.0000
     19  C18       26.7290   59.1920   41.5720 C.2   1615  L6I1615     0.0000
     20  C39       27.8440   59.3020   42.3920 C.2   1615  L6I1615     0.0000
     21  C23       28.9490   58.4680   42.2550 C.2   1615  L6I1615     0.0000
     22  C21       28.9370   57.4850   41.2580 C.2   1615  L6I1615     0.0000
     23  C20       27.8190   57.3720   40.4310 C.2   1615  L6I1615     0.0000
     24  C22       30.1060   56.5530   41.0610 C.3   1615  L6I1615     0.0000
     25  C19       26.7320   58.2150   40.5870 C.2   1615  L6I1615     0.0000
     26  C24       30.1290   58.6420   43.1830 C.3   1615  L6I1615     0.0000
     27  N25       30.0060   57.8500   44.4260 N.3   1615  L6I1615     0.0000
     28  C26       28.9850   58.3130   45.4030 C.3   1615  L6I1615     0.0000
     29  C27       29.4300   59.5250   46.2210 C.3   1615  L6I1615     0.0000
     30  C28       28.2860   60.0920   47.0590 C.3   1615  L6I1615     0.0000
     31  O29       30.4970   59.1690   47.1140 O.2   1615  L6I1615     0.0000
     32  C30       31.8010   59.2820   46.6400 C.2   1615  L6I1615     0.0000
     33  C31       32.5910   60.3050   47.1500 C.2   1615  L6I1615     0.0000
     34  C35       32.3150   58.4090   45.6870 C.2   1615  L6I1615     0.0000
     35  C32       33.8930   60.4520   46.7050 C.2   1615  L6I1615     0.0000
     36  C33       34.4090   59.5870   45.7580 C.2   1615  L6I1615     0.0000
     37  C34       33.6270   58.5650   45.2450 C.2   1615  L6I1615     0.0000
     38  S36       31.3120   57.1080   45.0380 S.O2  1615  L6I1615     0.0000
     39  O37       30.8820   56.2890   46.1280 O.2   1615  L6I1615     0.0000
     40  O38       32.0140   56.4860   43.9570 O.2   1615  L6I1615     0.0000
@<TRIPOS>BOND
     1     7     5    1
     2     8     5    1
     3     8     9    1
     4     5     4    1
     5    10     9    1
     6     9     6    1
     7     4     6    1
     8     4     3    2
     9     6    11    2
    10     2     3    1
    11     2     1    1
    12     3    13    1
    13    11    12    1
    14    13    12    2
    15    12    14    1
    16    23    25    1
    17    23    22    2
    18    25    19    2
    19    24    22    1
    20    22    21    1
    21    19    14    1
    22    19    20    1
    23    14    15    1
    24    21    20    2
    25    21    26    1
    26    15    16    1
    27    26    27    1
    28    40    38    2
    29    16    17   ar
    30    16    18   ar
    31    27    38    1
    32    27    28    1
    33    38    34    1
    34    38    39    2
    35    37    34    1
    36    37    36    2
    37    28    29    1
    38    34    32    2
    39    36    35    1
    40    29    30    1
    41    29    31    1
    42    32    31    1
    43    32    33    1
    44    35    33    2
