@<TRIPOS>MOLECULE
output.pdbqt
 40 44 0 0 0
SMALL
GASTEIGER

@<TRIPOS>ATOM
      1  C1        24.7620   62.0290   36.3450 C.3   1615  L6I1615     0.0000
      2  O2        24.1820   60.8370   36.8720 O.2   1615  L6I1615     0.0000
      3  C3        24.2080   60.6490   38.2300 C.2   1615  L6I1615     0.0000
      4  C12       22.9490   60.5120   38.8350 C.2   1615  L6I1615     0.0000
      5  N10       21.6570   60.5180   38.3940 N.pl3 1615  L6I1615     0.0000
      6  C7        22.8620   60.3170   40.1950 C.2   1615  L6I1615     0.0000
      7  C11       21.1400   60.6850   37.0420 C.3   1615  L6I1615     0.0000
      8  N9        20.8040   60.3360   39.4370 N.3   1615  L6I1615     0.0000
      9  N8        21.5420   60.2150   40.5280 N.pl3 1615  L6I1615     0.0000
     10  H8        21.1800   60.0670   41.4700 H     1615  L6I1615     0.0000
     11  C6        24.0370   60.2560   40.9900 C.2   1615  L6I1615     0.0000
     12  C5        25.2970   60.3920   40.3970 C.2   1615  L6I1615     0.0000
     13  C4        25.3580   60.5880   39.0140 C.2   1615  L6I1615     0.0000
     14  C13       26.5470   60.3230   41.2670 C.3   1615  L6I1615     0.0000
     15  C14       26.4240   61.0180   42.6290 C.3   1615  L6I1615     0.0000
     16  C15       27.7480   61.3850   43.2880 C.2   1615  L6I1615     0.0000
     17  O17       28.6440   61.9060   42.5890 O.co2 1615  L6I1615     0.0000
     18  O16       27.8640   61.1410   44.5110 O.co2 1615  L6I1615     0.0000
     19  C18       27.0300   58.8940   41.4600 C.2   1615  L6I1615     0.0000
     20  C39       26.7820   58.2120   42.6440 C.2   1615  L6I1615     0.0000
     21  C23       27.2110   56.9050   42.8490 C.2   1615  L6I1615     0.0000
     22  C21       27.9170   56.2550   41.8290 C.2   1615  L6I1615     0.0000
     23  C20       28.1690   56.9360   40.6380 C.2   1615  L6I1615     0.0000
     24  C22       28.4070   54.8380   41.9930 C.3   1615  L6I1615     0.0000
     25  C19       27.7310   58.2380   40.4580 C.2   1615  L6I1615     0.0000
     26  C24       26.9060   56.2210   44.1620 C.3   1615  L6I1615     0.0000
     27  N25       27.8210   56.6300   45.2490 N.3   1615  L6I1615     0.0000
     28  C26       28.6990   57.7960   44.9670 C.3   1615  L6I1615     0.0000
     29  C27       29.9010   57.4560   44.0860 C.3   1615  L6I1615     0.0000
     30  C28       30.6570   58.7100   43.6530 C.3   1615  L6I1615     0.0000
     31  O29       30.8210   56.6060   44.7900 O.2   1615  L6I1615     0.0000
     32  C30       30.6340   55.2300   44.6920 C.2   1615  L6I1615     0.0000
     33  C31       31.5490   54.5020   43.9440 C.2   1615  L6I1615     0.0000
     34  C35       29.5700   54.5870   45.3170 C.2   1615  L6I1615     0.0000
     35  C32       31.3990   53.1320   43.8210 C.2   1615  L6I1615     0.0000
     36  C33       30.3440   52.4870   44.4400 C.2   1615  L6I1615     0.0000
     37  C34       29.4270   53.2070   45.1880 C.2   1615  L6I1615     0.0000
     38  S36       28.4060   55.5120   46.2690 S.O2  1615  L6I1615     0.0000
     39  O37       29.1160   56.1920   47.3070 O.2   1615  L6I1615     0.0000
     40  O38       27.3270   54.6450   46.6400 O.2   1615  L6I1615     0.0000
@<TRIPOS>BOND
     1     1     2    1
     2     2     3    1
     3     7     5    1
     4     3     4    2
     5     3    13    1
     6     5     4    1
     7     5     8    1
     8     4     6    1
     9    13    12    2
    10     8     9    1
    11     6     9    1
    12     6    11    2
    13    12    11    1
    14    12    14    1
    15    25    23    1
    16    25    19    2
    17     9    10    1
    18    23    22    2
    19    14    19    1
    20    14    15    1
    21    19    20    1
    22    22    24    1
    23    22    21    1
    24    17    16   ar
    25    15    16    1
    26    20    21    2
    27    21    26    1
    28    16    18   ar
    29    30    29    1
    30    35    33    1
    31    35    36    2
    32    33    32    2
    33    29    31    1
    34    29    28    1
    35    26    27    1
    36    36    37    1
    37    32    31    1
    38    32    34    1
    39    28    27    1
    40    37    34    2
    41    27    38    1
    42    34    38    1
    43    38    40    2
    44    38    39    2
