@<TRIPOS>MOLECULE
output.pdbqt
 40 44 0 0 0
SMALL
GASTEIGER

@<TRIPOS>ATOM
      1  C1        21.0290   59.9850   39.6930 C.3   1615  L6I1615     0.0000
      2  O2        22.0320   60.8490   40.2260 O.2   1615  L6I1615     0.0000
      3  C3        23.3460   60.5300   40.0060 C.2   1615  L6I1615     0.0000
      4  C12       23.9290   61.1510   38.8900 C.2   1615  L6I1615     0.0000
      5  N10       23.4990   62.0260   37.9350 N.pl3 1615  L6I1615     0.0000
      6  C7        25.2460   60.9000   38.5780 C.2   1615  L6I1615     0.0000
      7  C11       22.1880   62.6390   37.7610 C.3   1615  L6I1615     0.0000
      8  N9        24.5060   62.3060   37.0660 N.3   1615  L6I1615     0.0000
      9  N8        25.5650   61.6200   37.4620 N.pl3 1615  L6I1615     0.0000
     10  H8        26.4770   61.6280   37.0060 H     1615  L6I1615     0.0000
     11  C6        26.0190   60.0180   39.3760 C.2   1615  L6I1615     0.0000
     12  C5        25.4480   59.3930   40.4910 C.2   1615  L6I1615     0.0000
     13  C4        24.1090   59.6640   40.7860 C.2   1615  L6I1615     0.0000
     14  C13       26.2940   58.4470   41.3360 C.3   1615  L6I1615     0.0000
     15  C14       27.7610   58.3320   40.9040 C.3   1615  L6I1615     0.0000
     16  C15       28.3160   56.9130   40.8720 C.2   1615  L6I1615     0.0000
     17  O17       27.6590   55.9990   41.4150 O.co2 1615  L6I1615     0.0000
     18  O16       29.4130   56.7430   40.2940 O.co2 1615  L6I1615     0.0000
     19  C18       26.2200   58.7850   42.8170 C.2   1615  L6I1615     0.0000
     20  C39       26.3280   57.7920   43.7820 C.2   1615  L6I1615     0.0000
     21  C23       26.2640   58.0720   45.1430 C.2   1615  L6I1615     0.0000
     22  C21       26.0850   59.3980   45.5550 C.2   1615  L6I1615     0.0000
     23  C20       25.9750   60.3990   44.5900 C.2   1615  L6I1615     0.0000
     24  C22       26.0080   59.7620   47.0160 C.3   1615  L6I1615     0.0000
     25  C19       26.0420   60.0950   43.2400 C.2   1615  L6I1615     0.0000
     26  C24       26.3900   56.9420   46.1390 C.3   1615  L6I1615     0.0000
     27  N25       27.7880   56.6910   46.5510 N.3   1615  L6I1615     0.0000
     28  C26       28.6510   55.9950   45.5610 C.3   1615  L6I1615     0.0000
     29  C27       28.4040   54.4880   45.4900 C.3   1615  L6I1615     0.0000
     30  C28       29.1570   53.8460   44.3270 C.3   1615  L6I1615     0.0000
     31  O29       28.8320   53.8460   46.7020 O.2   1615  L6I1615     0.0000
     32  C30       27.9060   53.7300   47.7340 C.2   1615  L6I1615     0.0000
     33  C31       27.4010   52.4680   48.0150 C.2   1615  L6I1615     0.0000
     34  C35       27.4880   54.8330   48.4730 C.2   1615  L6I1615     0.0000
     35  C32       26.4780   52.3100   49.0340 C.2   1615  L6I1615     0.0000
     36  C33       26.0580   53.4010   49.7720 C.2   1615  L6I1615     0.0000
     37  C34       26.5580   54.6640   49.4970 C.2   1615  L6I1615     0.0000
     38  S36       28.1300   56.4390   48.1170 S.O2  1615  L6I1615     0.0000
     39  O37       29.5520   56.3930   48.2540 O.2   1615  L6I1615     0.0000
     40  O38       27.4040   57.4020   48.8890 O.2   1615  L6I1615     0.0000
@<TRIPOS>BOND
     1    10     9    1
     2     8     9    1
     3     8     5    1
     4     9     6    1
     5     7     5    1
     6     5     4    1
     7     6     4    1
     8     6    11    2
     9     4     3    2
    10    11    12    1
    11     1     2    1
    12     3     2    1
    13     3    13    1
    14    18    16   ar
    15    12    13    2
    16    12    14    1
    17    16    15    1
    18    16    17   ar
    19    15    14    1
    20    14    19    1
    21    19    25    2
    22    19    20    1
    23    25    23    1
    24    20    21    2
    25    30    29    1
    26    23    22    2
    27    21    22    1
    28    21    26    1
    29    29    28    1
    30    29    31    1
    31    22    24    1
    32    28    27    1
    33    26    27    1
    34    27    38    1
    35    31    32    1
    36    32    33    2
    37    32    34    1
    38    33    35    1
    39    38    39    2
    40    38    34    1
    41    38    40    2
    42    34    37    2
    43    35    36    2
    44    37    36    1
