@<TRIPOS>MOLECULE
output.pdbqt
 40 44 0 0 0
SMALL
GASTEIGER

@<TRIPOS>ATOM
      1  C1        17.3510   61.9170   35.8910 C.3   1615  L6I1615     0.0000
      2  O2        17.9050   63.2090   35.6470 O.2   1615  L6I1615     0.0000
      3  C3        18.4280   63.4660   34.4060 C.2   1615  L6I1615     0.0000
      4  C12       19.8240   63.3440   34.3140 C.2   1615  L6I1615     0.0000
      5  N10       20.8260   63.0200   35.1810 N.pl3 1615  L6I1615     0.0000
      6  C7        20.4520   63.5790   33.1120 C.2   1615  L6I1615     0.0000
      7  C11       20.7540   62.6720   36.5950 C.3   1615  L6I1615     0.0000
      8  N9        22.0270   63.0530   34.5450 N.3   1615  L6I1615     0.0000
      9  N8        21.7930   63.3930   33.2890 N.pl3 1615  L6I1615     0.0000
     10  H8        22.5040   63.4990   32.5650 H     1615  L6I1615     0.0000
     11  C6        19.6990   63.9460   31.9660 C.2   1615  L6I1615     0.0000
     12  C5        18.3080   64.0720   32.0470 C.2   1615  L6I1615     0.0000
     13  C4        17.6940   63.8270   33.2790 C.2   1615  L6I1615     0.0000
     14  C13       17.5160   64.4670   30.8060 C.3   1615  L6I1615     0.0000
     15  C14       17.3900   63.3680   29.7440 C.3   1615  L6I1615     0.0000
     16  C15       17.8280   63.7720   28.3410 C.2   1615  L6I1615     0.0000
     17  O17       17.6240   62.9790   27.3960 O.co2 1615  L6I1615     0.0000
     18  O16       18.3760   64.8900   28.2140 O.co2 1615  L6I1615     0.0000
     19  C18       16.1370   65.0050   31.1550 C.2   1615  L6I1615     0.0000
     20  C39       15.0820   64.8990   30.2590 C.2   1615  L6I1615     0.0000
     21  C23       13.8110   65.3810   30.5520 C.2   1615  L6I1615     0.0000
     22  C21       13.5870   65.9950   31.7900 C.2   1615  L6I1615     0.0000
     23  C20       14.6440   66.1050   32.6940 C.2   1615  L6I1615     0.0000
     24  C22       12.2300   66.5370   32.1630 C.3   1615  L6I1615     0.0000
     25  C19       15.9010   65.6160   32.3790 C.2   1615  L6I1615     0.0000
     26  C24       12.7070   65.2320   29.5300 C.3   1615  L6I1615     0.0000
     27  N25       12.9510   64.1270   28.5780 N.3   1615  L6I1615     0.0000
     28  C26       13.6080   64.4960   27.2960 C.3   1615  L6I1615     0.0000
     29  C27       12.6600   65.1500   26.2910 C.3   1615  L6I1615     0.0000
     30  C28       13.4100   65.6970   25.0790 C.3   1615  L6I1615     0.0000
     31  O29       11.6880   64.2030   25.8190 O.2   1615  L6I1615     0.0000
     32  C30       10.5000   64.0840   26.5350 C.2   1615  L6I1615     0.0000
     33  C31        9.3390   64.5770   25.9540 C.2   1615  L6I1615     0.0000
     34  C35       10.4570   63.4930   27.7940 C.2   1615  L6I1615     0.0000
     35  C32        8.1370   64.4780   26.6320 C.2   1615  L6I1615     0.0000
     36  C33        8.0880   63.8920   27.8830 C.2   1615  L6I1615     0.0000
     37  C34        9.2420   63.3980   28.4690 C.2   1615  L6I1615     0.0000
     38  S36       11.9330   62.8650   28.5340 S.O2  1615  L6I1615     0.0000
     39  O37       12.4890   61.8820   27.6590 O.2   1615  L6I1615     0.0000
     40  O38       11.6410   62.4860   29.8840 O.2   1615  L6I1615     0.0000
@<TRIPOS>BOND
     1    30    29    1
     2    31    29    1
     3    31    32    1
     4    33    32    2
     5    33    35    1
     6    29    28    1
     7    32    34    1
     8    35    36    2
     9    28    27    1
    10    17    16   ar
    11    39    38    2
    12    34    37    2
    13    34    38    1
    14    36    37    1
    15    18    16   ar
    16    16    15    1
    17    38    27    1
    18    38    40    2
    19    27    26    1
    20    26    21    1
    21    15    14    1
    22    20    21    1
    23    20    19    2
    24    21    22    2
    25    14    19    1
    26    14    12    1
    27    19    25    1
    28    22    24    1
    29    22    23    1
    30    11    12    2
    31    11     6    1
    32    12    13    1
    33    25    23    2
    34    10     9    1
    35     6     9    1
    36     6     4    2
    37    13     3    2
    38     9     8    1
    39     4     3    1
    40     4     5    1
    41     3     2    1
    42     8     5    1
    43     5     7    1
    44     2     1    1
